Version 4
SHEET 1 880 680
WIRE -480 -16 -688 -16
WIRE -352 -16 -400 -16
WIRE -288 -16 -352 -16
WIRE -352 0 -352 -16
WIRE -688 32 -688 -16
WIRE 400 32 368 32
WIRE 416 32 400 32
WIRE -352 96 -352 64
WIRE -352 96 -400 96
WIRE -400 112 -400 96
WIRE -352 112 -352 96
WIRE 368 112 368 32
WIRE 368 112 320 112
WIRE 384 144 320 144
WIRE 432 144 384 144
WIRE 352 160 320 160
WIRE 320 176 320 160
WIRE -688 192 -688 112
WIRE -480 192 -688 192
WIRE -352 192 -352 176
WIRE -352 192 -400 192
WIRE -288 192 -352 192
WIRE 64 224 16 224
WIRE 112 224 64 224
WIRE 320 224 320 208
WIRE 352 224 320 224
WIRE 64 240 64 224
WIRE -128 272 -176 272
WIRE -96 272 -128 272
WIRE 16 272 16 224
WIRE -176 288 -176 272
WIRE 112 288 112 224
WIRE -176 368 -176 352
WIRE -96 368 -96 352
WIRE -96 368 -176 368
WIRE -96 384 -96 368
WIRE 16 384 16 352
WIRE 64 384 16 384
WIRE 112 384 112 352
WIRE 112 384 64 384
WIRE 64 432 64 384
FLAG -96 384 0
FLAG 64 240 0
FLAG -128 272 +9V
IOPIN -128 272 BiDir
FLAG 64 432 -9V
IOPIN 64 432 BiDir
FLAG 192 176 +9V
IOPIN 192 176 BiDir
FLAG 192 208 -9V
IOPIN 192 208 BiDir
FLAG -288 -16 Sig+
IOPIN -288 -16 BiDir
FLAG 192 112 Sig+
IOPIN 192 112 BiDir
FLAG -288 192 Sig-
IOPIN -288 192 BiDir
FLAG 192 144 Sig-
IOPIN 192 144 BiDir
FLAG 400 32 VOut
IOPIN 400 32 Out
FLAG -400 112 0
FLAG 384 144 REF
SYMBOL INA848 256 160 R0
SYMATTR InstName U1
SYMBOL RefAmp197 464 144 R180
SYMATTR InstName OPA197REF
SYMBOL cap 336 160 R0
SYMATTR InstName C1
SYMATTR Value .22µ
SYMBOL voltage -96 256 R0
WINDOW 123 0 0 Left 0
WINDOW 39 0 0 Left 0
SYMATTR InstName V1
SYMATTR Value 15
SYMBOL voltage 16 256 R0
WINDOW 123 0 0 Left 0
WINDOW 39 0 0 Left 0
SYMATTR InstName V2
SYMATTR Value 15
SYMBOL cap -192 288 R0
SYMATTR InstName C2
SYMATTR Value .1µ
SYMBOL cap 96 288 R0
SYMATTR InstName C3
SYMATTR Value .1µ
SYMBOL voltage -688 16 R0
WINDOW 123 24 180 Left 2
WINDOW 39 24 152 Left 2
SYMATTR InstName V3
SYMATTR Value SINE(0 10n 50)
SYMATTR Value2 AC 0
SYMATTR SpiceLine Rser=13.25
SYMBOL cap -336 64 R180
WINDOW 0 24 56 Left 2
WINDOW 3 24 8 Left 2
SYMATTR InstName C4
SYMATTR Value 150µ
SYMBOL cap -336 176 R180
WINDOW 0 24 56 Left 2
WINDOW 3 24 8 Left 2
SYMATTR InstName C5
SYMATTR Value 150µ
SYMBOL res -384 -32 R90
WINDOW 0 0 56 VBottom 2
WINDOW 3 32 56 VTop 2
SYMATTR InstName R1
SYMATTR Value 10
SYMBOL res -384 208 M270
WINDOW 0 32 56 VTop 2
WINDOW 3 0 56 VBottom 2
SYMATTR InstName R2
SYMATTR Value 10
TEXT -208 600 Left 2 ;.tran 0 1 50u 1u
TEXT -208 632 Left 2 !.noise V(VOut) V3 dec 10 .1 1000
TEXT -248 560 Left 2 ;.meas TRAN Vpp PP V(Vout) FROM 100u TO 250m
